*SPEF "ieee 1481-1999"
*DESIGN "pipelined_multiplier"
*DATE "20:57:10 Monday May 27, 2024"
*VENDOR "The OpenROAD Project"
*PROGRAM "OpenROAD"
*VERSION "0889970d1790a2617e69f253221b8bd7626e51dc"
*DESIGN_FLOW "NAME_SCOPE LOCAL" "PIN_CAP NONE"
*DIVIDER /
*DELIMITER :
*BUS_DELIMITER []
*T_UNIT 1 NS
*C_UNIT 1 PF
*R_UNIT 1 OHM
*L_UNIT 1 HENRY

*NAME_MAP
*3 a[0]
*4 a[1]
*5 a[2]
*6 a[3]
*7 a[4]
*8 a[5]
*9 a[6]
*10 a[7]
*11 b[0]
*12 b[1]
*13 b[2]
*14 b[3]
*15 b[4]
*16 b[5]
*17 b[6]
*18 b[7]
*19 clk
*20 out[0]
*21 out[10]
*22 out[11]
*23 out[12]
*24 out[13]
*25 out[14]
*26 out[15]
*27 out[1]
*28 out[2]
*29 out[3]
*30 out[4]
*31 out[5]
*32 out[6]
*33 out[7]
*34 out[8]
*35 out[9]
*36 reset
*37 _000_
*38 _001_
*39 _002_
*40 _003_
*41 _004_
*42 _005_
*43 _006_
*44 _007_
*45 _008_
*46 _009_
*47 _010_
*48 _011_
*49 _012_
*50 _013_
*51 _014_
*52 _015_
*53 _016_
*54 _017_
*55 _018_
*56 _019_
*57 _020_
*58 _021_
*59 _022_
*60 _023_
*61 _024_
*62 _025_
*63 _026_
*64 _027_
*65 _028_
*66 _029_
*67 _030_
*68 _031_
*69 _032_
*70 _033_
*71 _034_
*72 _035_
*73 _036_
*74 _037_
*75 _038_
*76 _039_
*77 _040_
*78 _041_
*79 _042_
*80 _043_
*81 _044_
*82 _045_
*83 _046_
*84 _047_
*85 _048_
*86 _049_
*87 _050_
*88 _051_
*89 _052_
*90 _053_
*91 _054_
*92 _055_
*93 _056_
*94 _057_
*95 _058_
*96 _059_
*97 _060_
*98 _061_
*99 _062_
*100 _063_
*101 _064_
*102 _065_
*103 _066_
*104 _067_
*105 _068_
*106 _069_
*107 _070_
*108 _071_
*109 _072_
*110 _073_
*111 _074_
*112 _075_
*113 _076_
*114 _077_
*115 _078_
*116 _079_
*117 _080_
*118 _081_
*119 _082_
*120 _083_
*121 _084_
*122 _085_
*123 _086_
*124 _087_
*125 _088_
*126 _089_
*127 _090_
*128 _091_
*129 _092_
*130 _093_
*131 _094_
*132 _095_
*133 _096_
*134 _097_
*135 _098_
*136 _099_
*137 _100_
*138 _101_
*139 _102_
*140 _103_
*141 _104_
*142 _105_
*143 _106_
*144 _107_
*145 _108_
*146 _109_
*147 _110_
*148 _111_
*149 _112_
*150 _113_
*151 _114_
*152 _115_
*153 _116_
*154 _117_
*155 _118_
*156 _119_
*157 _120_
*158 _121_
*159 _122_
*160 _123_
*161 _124_
*162 _125_
*163 _126_
*164 _127_
*165 _128_
*166 _129_
*167 _130_
*168 _131_
*169 _132_
*170 _133_
*171 _134_
*172 _135_
*173 _136_
*174 _137_
*175 _138_
*176 _139_
*177 _140_
*178 _141_
*179 _142_
*180 _143_
*181 _144_
*182 _145_
*183 _146_
*184 _147_
*185 _148_
*186 _149_
*187 _150_
*188 _151_
*189 _152_
*190 _153_
*191 _154_
*192 _155_
*193 _156_
*194 _157_
*195 _158_
*196 _159_
*197 _160_
*198 _161_
*199 _162_
*200 _163_
*201 _164_
*202 _165_
*203 _166_
*204 _167_
*205 _168_
*206 _169_
*207 _170_
*208 _171_
*209 _172_
*210 _173_
*211 _174_
*212 _175_
*213 _176_
*214 _177_
*215 _178_
*216 _179_
*217 _180_
*218 _181_
*219 _182_
*220 _183_
*221 _184_
*222 _185_
*223 _186_
*224 _187_
*225 _188_
*226 _189_
*227 _190_
*228 _191_
*229 _192_
*230 _193_
*231 _194_
*232 _195_
*233 _196_
*234 _197_
*235 _198_
*236 _199_
*237 _200_
*238 _201_
*239 _202_
*240 _203_
*241 _204_
*242 _205_
*243 _206_
*244 _207_
*245 _208_
*246 _209_
*247 _210_
*248 _211_
*249 _212_
*250 _213_
*251 _214_
*252 _215_
*253 _216_
*254 _217_
*255 _218_
*256 _219_
*257 _220_
*258 _221_
*259 _222_
*260 _223_
*261 _224_
*262 _225_
*263 _226_
*264 _227_
*265 _228_
*266 _229_
*267 _230_
*268 _231_
*269 _232_
*270 _233_
*271 _234_
*272 _235_
*273 _236_
*274 _237_
*275 _238_
*276 _239_
*277 _240_
*278 _241_
*279 _242_
*280 _243_
*281 _244_
*282 _245_
*283 _246_
*284 _247_
*285 _248_
*286 _249_
*287 _250_
*288 _251_
*289 _252_
*290 _253_
*291 _254_
*292 _255_
*293 _256_
*294 _257_
*295 _258_
*296 _259_
*297 _260_
*298 _261_
*299 _262_
*300 _263_
*301 _264_
*302 _265_
*303 _266_
*304 _267_
*305 _268_
*306 _269_
*307 _270_
*308 _271_
*309 _272_
*310 _273_
*311 _274_
*312 _275_
*313 _276_
*314 _277_
*315 _278_
*316 _279_
*317 _280_
*318 _281_
*319 _282_
*320 _283_
*321 _284_
*322 _285_
*323 _286_
*324 _287_
*325 _288_
*326 _289_
*327 _290_
*328 _291_
*329 _292_
*330 _293_
*331 _294_
*332 _295_
*333 _296_
*334 _297_
*335 _298_
*336 _299_
*337 _300_
*338 _301_
*339 _302_
*340 _303_
*341 _304_
*342 _305_
*343 _306_
*344 _307_
*345 _308_
*346 _309_
*347 _310_
*348 _311_
*349 _312_
*350 _313_
*351 _314_
*352 _315_
*353 _316_
*354 _317_
*355 _318_
*356 _319_
*357 _320_
*358 _321_
*359 _322_
*360 _323_
*361 _324_
*362 _325_
*363 _326_
*364 _327_
*365 _328_
*366 _329_
*367 _330_
*368 _331_
*369 _332_
*370 _333_
*371 _334_
*372 _335_
*373 _336_
*374 _337_
*375 _338_
*376 _339_
*377 _340_
*378 _341_
*379 _342_
*380 _343_
*381 _344_
*382 _345_
*383 _346_
*384 _347_
*385 _348_
*386 _349_
*387 _350_
*388 _351_
*389 _352_
*390 _353_
*391 _354_
*392 _355_
*393 _356_
*394 _357_
*395 _358_
*396 _359_
*397 _360_
*398 _361_
*399 _362_
*400 _363_
*401 _364_
*402 _365_
*403 _366_
*404 _367_
*405 _368_
*406 _369_
*407 _370_
*408 _371_
*409 _372_
*410 net1
*411 net10
*412 net11
*413 net12
*414 net13
*415 net14
*416 net15
*417 net16
*418 net17
*419 net18
*420 net19
*421 net2
*422 net20
*423 net21
*424 net22
*425 net23
*426 net24
*427 net25
*428 net26
*429 net27
*430 net28
*431 net29
*432 net3
*433 net30
*434 net31
*435 net32
*436 net33
*437 net34
*438 net4
*439 net5
*440 net6
*441 net7
*442 net8
*443 net9
*444 temp_a\[0\]
*445 temp_a\[1\]
*446 temp_a\[2\]
*447 temp_a\[3\]
*448 temp_a\[4\]
*449 temp_a\[5\]
*450 temp_a\[6\]
*451 temp_a\[7\]
*452 temp_b\[0\]
*453 temp_b\[1\]
*454 temp_b\[2\]
*455 temp_b\[3\]
*456 temp_b\[4\]
*457 temp_b\[5\]
*458 temp_b\[6\]
*459 temp_b\[7\]
*460 FILLER_0_0_109
*461 FILLER_0_0_113
*462 FILLER_0_0_125
*463 FILLER_0_0_137
*464 FILLER_0_0_141
*465 FILLER_0_0_15
*466 FILLER_0_0_153
*467 FILLER_0_0_161
*468 FILLER_0_0_167
*469 FILLER_0_0_169
*470 FILLER_0_0_181
*471 FILLER_0_0_189
*472 FILLER_0_0_27
*473 FILLER_0_0_29
*474 FILLER_0_0_3
*475 FILLER_0_0_37
*476 FILLER_0_0_41
*477 FILLER_0_0_49
*478 FILLER_0_0_55
*479 FILLER_0_0_57
*480 FILLER_0_0_69
*481 FILLER_0_0_76
*482 FILLER_0_0_83
*483 FILLER_0_0_85
*484 FILLER_0_0_97
*485 FILLER_0_10_109
*486 FILLER_0_10_113
*487 FILLER_0_10_118
*488 FILLER_0_10_130
*489 FILLER_0_10_138
*490 FILLER_0_10_145
*491 FILLER_0_10_156
*492 FILLER_0_10_188
*493 FILLER_0_10_19
*494 FILLER_0_10_27
*495 FILLER_0_10_46
*496 FILLER_0_10_58
*497 FILLER_0_10_6
*498 FILLER_0_10_70
*499 FILLER_0_10_82
*500 FILLER_0_10_85
*501 FILLER_0_10_93
*502 FILLER_0_10_97
*503 FILLER_0_11_103
*504 FILLER_0_11_111
*505 FILLER_0_11_113
*506 FILLER_0_11_121
*507 FILLER_0_11_129
*508 FILLER_0_11_135
*509 FILLER_0_11_142
*510 FILLER_0_11_155
*511 FILLER_0_11_164
*512 FILLER_0_11_169
*513 FILLER_0_11_181
*514 FILLER_0_11_19
*515 FILLER_0_11_37
*516 FILLER_0_11_49
*517 FILLER_0_11_55
*518 FILLER_0_11_57
*519 FILLER_0_11_61
*520 FILLER_0_11_73
*521 FILLER_0_11_84
*522 FILLER_0_11_91
*523 FILLER_0_12_115
*524 FILLER_0_12_127
*525 FILLER_0_12_136
*526 FILLER_0_12_141
*527 FILLER_0_12_153
*528 FILLER_0_12_165
*529 FILLER_0_12_177
*530 FILLER_0_12_184
*531 FILLER_0_12_3
*532 FILLER_0_12_36
*533 FILLER_0_12_40
*534 FILLER_0_12_48
*535 FILLER_0_12_63
*536 FILLER_0_12_69
*537 FILLER_0_12_81
*538 FILLER_0_12_85
*539 FILLER_0_13_105
*540 FILLER_0_13_111
*541 FILLER_0_13_113
*542 FILLER_0_13_121
*543 FILLER_0_13_130
*544 FILLER_0_13_138
*545 FILLER_0_13_147
*546 FILLER_0_13_15
*547 FILLER_0_13_159
*548 FILLER_0_13_24
*549 FILLER_0_13_3
*550 FILLER_0_13_39
*551 FILLER_0_13_71
*552 FILLER_0_13_83
*553 FILLER_0_13_95
*554 FILLER_0_14_109
*555 FILLER_0_14_128
*556 FILLER_0_14_134
*557 FILLER_0_14_138
*558 FILLER_0_14_141
*559 FILLER_0_14_153
*560 FILLER_0_14_161
*561 FILLER_0_14_173
*562 FILLER_0_14_185
*563 FILLER_0_14_25
*564 FILLER_0_14_33
*565 FILLER_0_14_45
*566 FILLER_0_14_57
*567 FILLER_0_14_69
*568 FILLER_0_14_81
*569 FILLER_0_14_85
*570 FILLER_0_14_97
*571 FILLER_0_15_101
*572 FILLER_0_15_109
*573 FILLER_0_15_121
*574 FILLER_0_15_140
*575 FILLER_0_15_152
*576 FILLER_0_15_163
*577 FILLER_0_15_167
*578 FILLER_0_15_169
*579 FILLER_0_15_177
*580 FILLER_0_15_182
*581 FILLER_0_15_188
*582 FILLER_0_15_25
*583 FILLER_0_15_37
*584 FILLER_0_15_45
*585 FILLER_0_15_52
*586 FILLER_0_15_57
*587 FILLER_0_15_65
*588 FILLER_0_15_73
*589 FILLER_0_15_86
*590 FILLER_0_15_93
*591 FILLER_0_15_97
*592 FILLER_0_16_111
*593 FILLER_0_16_119
*594 FILLER_0_16_131
*595 FILLER_0_16_139
*596 FILLER_0_16_141
*597 FILLER_0_16_150
*598 FILLER_0_16_168
*599 FILLER_0_16_18
*600 FILLER_0_16_190
*601 FILLER_0_16_26
*602 FILLER_0_16_35
*603 FILLER_0_16_39
*604 FILLER_0_16_50
*605 FILLER_0_16_6
*606 FILLER_0_16_62
*607 FILLER_0_16_66
*608 FILLER_0_16_77
*609 FILLER_0_16_83
*610 FILLER_0_16_85
*611 FILLER_0_17_103
*612 FILLER_0_17_11
*613 FILLER_0_17_111
*614 FILLER_0_17_113
*615 FILLER_0_17_121
*616 FILLER_0_17_137
*617 FILLER_0_17_141
*618 FILLER_0_17_153
*619 FILLER_0_17_161
*620 FILLER_0_17_167
*621 FILLER_0_17_169
*622 FILLER_0_17_181
*623 FILLER_0_17_189
*624 FILLER_0_17_21
*625 FILLER_0_17_3
*626 FILLER_0_17_37
*627 FILLER_0_17_52
*628 FILLER_0_17_57
*629 FILLER_0_17_69
*630 FILLER_0_17_7
*631 FILLER_0_17_77
*632 FILLER_0_17_95
*633 FILLER_0_18_112
*634 FILLER_0_18_122
*635 FILLER_0_18_134
*636 FILLER_0_18_161
*637 FILLER_0_18_173
*638 FILLER_0_18_177
*639 FILLER_0_18_181
*640 FILLER_0_18_189
*641 FILLER_0_18_21
*642 FILLER_0_18_26
*643 FILLER_0_18_29
*644 FILLER_0_18_3
*645 FILLER_0_18_41
*646 FILLER_0_18_51
*647 FILLER_0_18_59
*648 FILLER_0_18_81
*649 FILLER_0_18_85
*650 FILLER_0_18_89
*651 FILLER_0_19_102
*652 FILLER_0_19_110
*653 FILLER_0_19_113
*654 FILLER_0_19_130
*655 FILLER_0_19_142
*656 FILLER_0_19_154
*657 FILLER_0_19_165
*658 FILLER_0_19_18
*659 FILLER_0_19_189
*660 FILLER_0_19_30
*661 FILLER_0_19_41
*662 FILLER_0_19_6
*663 FILLER_0_19_67
*664 FILLER_0_19_78
*665 FILLER_0_19_90
*666 FILLER_0_1_101
*667 FILLER_0_1_110
*668 FILLER_0_1_113
*669 FILLER_0_1_120
*670 FILLER_0_1_126
*671 FILLER_0_1_135
*672 FILLER_0_1_15
*673 FILLER_0_1_163
*674 FILLER_0_1_167
*675 FILLER_0_1_169
*676 FILLER_0_1_181
*677 FILLER_0_1_189
*678 FILLER_0_1_27
*679 FILLER_0_1_3
*680 FILLER_0_1_39
*681 FILLER_0_1_57
*682 FILLER_0_1_61
*683 FILLER_0_1_78
*684 FILLER_0_1_86
*685 FILLER_0_20_108
*686 FILLER_0_20_116
*687 FILLER_0_20_128
*688 FILLER_0_20_138
*689 FILLER_0_20_141
*690 FILLER_0_20_147
*691 FILLER_0_20_15
*692 FILLER_0_20_159
*693 FILLER_0_20_171
*694 FILLER_0_20_183
*695 FILLER_0_20_25
*696 FILLER_0_20_29
*697 FILLER_0_20_3
*698 FILLER_0_20_38
*699 FILLER_0_20_50
*700 FILLER_0_20_62
*701 FILLER_0_20_80
*702 FILLER_0_20_85
*703 FILLER_0_20_97
*704 FILLER_0_21_10
*705 FILLER_0_21_110
*706 FILLER_0_21_127
*707 FILLER_0_21_138
*708 FILLER_0_21_153
*709 FILLER_0_21_165
*710 FILLER_0_21_169
*711 FILLER_0_21_176
*712 FILLER_0_21_188
*713 FILLER_0_21_27
*714 FILLER_0_21_39
*715 FILLER_0_21_51
*716 FILLER_0_21_55
*717 FILLER_0_21_57
*718 FILLER_0_21_6
*719 FILLER_0_21_69
*720 FILLER_0_21_84
*721 FILLER_0_21_88
*722 FILLER_0_22_109
*723 FILLER_0_22_12
*724 FILLER_0_22_121
*725 FILLER_0_22_133
*726 FILLER_0_22_139
*727 FILLER_0_22_145
*728 FILLER_0_22_158
*729 FILLER_0_22_17
*730 FILLER_0_22_182
*731 FILLER_0_22_188
*732 FILLER_0_22_21
*733 FILLER_0_22_3
*734 FILLER_0_22_50
*735 FILLER_0_22_62
*736 FILLER_0_22_70
*737 FILLER_0_22_81
*738 FILLER_0_22_85
*739 FILLER_0_22_97
*740 FILLER_0_23_109
*741 FILLER_0_23_113
*742 FILLER_0_23_128
*743 FILLER_0_23_140
*744 FILLER_0_23_145
*745 FILLER_0_23_157
*746 FILLER_0_23_165
*747 FILLER_0_23_169
*748 FILLER_0_23_181
*749 FILLER_0_23_189
*750 FILLER_0_23_3
*751 FILLER_0_23_55
*752 FILLER_0_23_57
*753 FILLER_0_23_66
*754 FILLER_0_23_72
*755 FILLER_0_23_85
*756 FILLER_0_23_97
*757 FILLER_0_24_107
*758 FILLER_0_24_130
*759 FILLER_0_24_14
*760 FILLER_0_24_152
*761 FILLER_0_24_184
*762 FILLER_0_24_19
*763 FILLER_0_24_27
*764 FILLER_0_24_29
*765 FILLER_0_24_37
*766 FILLER_0_24_47
*767 FILLER_0_24_6
*768 FILLER_0_24_60
*769 FILLER_0_24_82
*770 FILLER_0_25_106
*771 FILLER_0_25_11
*772 FILLER_0_25_113
*773 FILLER_0_25_134
*774 FILLER_0_25_149
*775 FILLER_0_25_161
*776 FILLER_0_25_167
*777 FILLER_0_25_3
*778 FILLER_0_25_34
*779 FILLER_0_25_46
*780 FILLER_0_25_62
*781 FILLER_0_25_74
*782 FILLER_0_25_80
*783 FILLER_0_25_94
*784 FILLER_0_26_101
*785 FILLER_0_26_113
*786 FILLER_0_26_125
*787 FILLER_0_26_137
*788 FILLER_0_26_141
*789 FILLER_0_26_149
*790 FILLER_0_26_161
*791 FILLER_0_26_169
*792 FILLER_0_26_178
*793 FILLER_0_26_18
*794 FILLER_0_26_186
*795 FILLER_0_26_29
*796 FILLER_0_26_41
*797 FILLER_0_26_49
*798 FILLER_0_26_56
*799 FILLER_0_26_6
*800 FILLER_0_26_68
*801 FILLER_0_26_80
*802 FILLER_0_26_85
*803 FILLER_0_26_93
*804 FILLER_0_27_102
*805 FILLER_0_27_126
*806 FILLER_0_27_138
*807 FILLER_0_27_144
*808 FILLER_0_27_156
*809 FILLER_0_27_172
*810 FILLER_0_27_18
*811 FILLER_0_27_184
*812 FILLER_0_27_39
*813 FILLER_0_27_47
*814 FILLER_0_27_55
*815 FILLER_0_27_6
*816 FILLER_0_27_70
*817 FILLER_0_27_82
*818 FILLER_0_27_94
*819 FILLER_0_28_110
*820 FILLER_0_28_117
*821 FILLER_0_28_129
*822 FILLER_0_28_134
*823 FILLER_0_28_144
*824 FILLER_0_28_15
*825 FILLER_0_28_151
*826 FILLER_0_28_174
*827 FILLER_0_28_186
*828 FILLER_0_28_23
*829 FILLER_0_28_3
*830 FILLER_0_28_52
*831 FILLER_0_28_69
*832 FILLER_0_28_85
*833 FILLER_0_28_98
*834 FILLER_0_29_107
*835 FILLER_0_29_111
*836 FILLER_0_29_116
*837 FILLER_0_29_126
*838 FILLER_0_29_137
*839 FILLER_0_29_142
*840 FILLER_0_29_15
*841 FILLER_0_29_167
*842 FILLER_0_29_169
*843 FILLER_0_29_181
*844 FILLER_0_29_27
*845 FILLER_0_29_3
*846 FILLER_0_29_35
*847 FILLER_0_29_50
*848 FILLER_0_29_55
*849 FILLER_0_29_57
*850 FILLER_0_29_68
*851 FILLER_0_29_76
*852 FILLER_0_29_94
*853 FILLER_0_2_122
*854 FILLER_0_2_137
*855 FILLER_0_2_15
*856 FILLER_0_2_153
*857 FILLER_0_2_157
*858 FILLER_0_2_186
*859 FILLER_0_2_27
*860 FILLER_0_2_29
*861 FILLER_0_2_3
*862 FILLER_0_2_60
*863 FILLER_0_2_94
*864 FILLER_0_30_106
*865 FILLER_0_30_147
*866 FILLER_0_30_15
*867 FILLER_0_30_159
*868 FILLER_0_30_171
*869 FILLER_0_30_183
*870 FILLER_0_30_191
*871 FILLER_0_30_27
*872 FILLER_0_30_29
*873 FILLER_0_30_3
*874 FILLER_0_30_51
*875 FILLER_0_30_73
*876 FILLER_0_30_98
*877 FILLER_0_31_104
*878 FILLER_0_31_113
*879 FILLER_0_31_139
*880 FILLER_0_31_15
*881 FILLER_0_31_164
*882 FILLER_0_31_169
*883 FILLER_0_31_181
*884 FILLER_0_31_189
*885 FILLER_0_31_27
*886 FILLER_0_31_39
*887 FILLER_0_31_51
*888 FILLER_0_31_55
*889 FILLER_0_31_60
*890 FILLER_0_31_68
*891 FILLER_0_31_92
*892 FILLER_0_32_109
*893 FILLER_0_32_113
*894 FILLER_0_32_125
*895 FILLER_0_32_133
*896 FILLER_0_32_139
*897 FILLER_0_32_147
*898 FILLER_0_32_15
*899 FILLER_0_32_155
*900 FILLER_0_32_160
*901 FILLER_0_32_167
*902 FILLER_0_32_169
*903 FILLER_0_32_181
*904 FILLER_0_32_189
*905 FILLER_0_32_27
*906 FILLER_0_32_29
*907 FILLER_0_32_3
*908 FILLER_0_32_41
*909 FILLER_0_32_48
*910 FILLER_0_32_57
*911 FILLER_0_32_65
*912 FILLER_0_32_69
*913 FILLER_0_32_77
*914 FILLER_0_32_83
*915 FILLER_0_32_85
*916 FILLER_0_32_97
*917 FILLER_0_3_110
*918 FILLER_0_3_120
*919 FILLER_0_3_132
*920 FILLER_0_3_144
*921 FILLER_0_3_15
*922 FILLER_0_3_162
*923 FILLER_0_3_169
*924 FILLER_0_3_181
*925 FILLER_0_3_189
*926 FILLER_0_3_27
*927 FILLER_0_3_3
*928 FILLER_0_3_39
*929 FILLER_0_3_51
*930 FILLER_0_3_55
*931 FILLER_0_3_57
*932 FILLER_0_3_69
*933 FILLER_0_3_89
*934 FILLER_0_4_109
*935 FILLER_0_4_121
*936 FILLER_0_4_128
*937 FILLER_0_4_145
*938 FILLER_0_4_15
*939 FILLER_0_4_155
*940 FILLER_0_4_167
*941 FILLER_0_4_175
*942 FILLER_0_4_181
*943 FILLER_0_4_189
*944 FILLER_0_4_27
*945 FILLER_0_4_29
*946 FILLER_0_4_3
*947 FILLER_0_4_41
*948 FILLER_0_4_45
*949 FILLER_0_4_53
*950 FILLER_0_4_60
*951 FILLER_0_4_72
*952 FILLER_0_4_85
*953 FILLER_0_4_97
*954 FILLER_0_5_101
*955 FILLER_0_5_110
*956 FILLER_0_5_113
*957 FILLER_0_5_126
*958 FILLER_0_5_134
*959 FILLER_0_5_141
*960 FILLER_0_5_147
*961 FILLER_0_5_164
*962 FILLER_0_5_189
*963 FILLER_0_5_26
*964 FILLER_0_5_3
*965 FILLER_0_5_44
*966 FILLER_0_5_48
*967 FILLER_0_5_57
*968 FILLER_0_5_68
*969 FILLER_0_5_74
*970 FILLER_0_5_9
*971 FILLER_0_6_10
*972 FILLER_0_6_106
*973 FILLER_0_6_120
*974 FILLER_0_6_132
*975 FILLER_0_6_146
*976 FILLER_0_6_152
*977 FILLER_0_6_156
*978 FILLER_0_6_168
*979 FILLER_0_6_176
*980 FILLER_0_6_180
*981 FILLER_0_6_188
*982 FILLER_0_6_23
*983 FILLER_0_6_27
*984 FILLER_0_6_36
*985 FILLER_0_6_45
*986 FILLER_0_6_57
*987 FILLER_0_6_6
*988 FILLER_0_6_69
*989 FILLER_0_6_81
*990 FILLER_0_6_85
*991 FILLER_0_7_100
*992 FILLER_0_7_113
*993 FILLER_0_7_125
*994 FILLER_0_7_137
*995 FILLER_0_7_156
*996 FILLER_0_7_28
*997 FILLER_0_7_36
*998 FILLER_0_7_46
*999 FILLER_0_7_55
*1000 FILLER_0_7_57
*1001 FILLER_0_7_6
*1002 FILLER_0_7_69
*1003 FILLER_0_7_81
*1004 FILLER_0_7_88
*1005 FILLER_0_8_108
*1006 FILLER_0_8_139
*1007 FILLER_0_8_141
*1008 FILLER_0_8_149
*1009 FILLER_0_8_164
*1010 FILLER_0_8_168
*1011 FILLER_0_8_180
*1012 FILLER_0_8_23
*1013 FILLER_0_8_27
*1014 FILLER_0_8_3
*1015 FILLER_0_8_35
*1016 FILLER_0_8_60
*1017 FILLER_0_8_67
*1018 FILLER_0_8_85
*1019 FILLER_0_8_92
*1020 FILLER_0_8_99
*1021 FILLER_0_9_102
*1022 FILLER_0_9_113
*1023 FILLER_0_9_125
*1024 FILLER_0_9_129
*1025 FILLER_0_9_137
*1026 FILLER_0_9_149
*1027 FILLER_0_9_15
*1028 FILLER_0_9_161
*1029 FILLER_0_9_167
*1030 FILLER_0_9_169
*1031 FILLER_0_9_177
*1032 FILLER_0_9_181
*1033 FILLER_0_9_189
*1034 FILLER_0_9_27
*1035 FILLER_0_9_3
*1036 FILLER_0_9_42
*1037 FILLER_0_9_54
*1038 FILLER_0_9_57
*1039 FILLER_0_9_76
*1040 FILLER_0_9_82
*1041 PHY_EDGE_ROW_0_Left_33
*1042 PHY_EDGE_ROW_0_Right_0
*1043 PHY_EDGE_ROW_10_Left_43
*1044 PHY_EDGE_ROW_10_Right_10
*1045 PHY_EDGE_ROW_11_Left_44
*1046 PHY_EDGE_ROW_11_Right_11
*1047 PHY_EDGE_ROW_12_Left_45
*1048 PHY_EDGE_ROW_12_Right_12
*1049 PHY_EDGE_ROW_13_Left_46
*1050 PHY_EDGE_ROW_13_Right_13
*1051 PHY_EDGE_ROW_14_Left_47
*1052 PHY_EDGE_ROW_14_Right_14
*1053 PHY_EDGE_ROW_15_Left_48
*1054 PHY_EDGE_ROW_15_Right_15
*1055 PHY_EDGE_ROW_16_Left_49
*1056 PHY_EDGE_ROW_16_Right_16
*1057 PHY_EDGE_ROW_17_Left_50
*1058 PHY_EDGE_ROW_17_Right_17
*1059 PHY_EDGE_ROW_18_Left_51
*1060 PHY_EDGE_ROW_18_Right_18
*1061 PHY_EDGE_ROW_19_Left_52
*1062 PHY_EDGE_ROW_19_Right_19
*1063 PHY_EDGE_ROW_1_Left_34
*1064 PHY_EDGE_ROW_1_Right_1
*1065 PHY_EDGE_ROW_20_Left_53
*1066 PHY_EDGE_ROW_20_Right_20
*1067 PHY_EDGE_ROW_21_Left_54
*1068 PHY_EDGE_ROW_21_Right_21
*1069 PHY_EDGE_ROW_22_Left_55
*1070 PHY_EDGE_ROW_22_Right_22
*1071 PHY_EDGE_ROW_23_Left_56
*1072 PHY_EDGE_ROW_23_Right_23
*1073 PHY_EDGE_ROW_24_Left_57
*1074 PHY_EDGE_ROW_24_Right_24
*1075 PHY_EDGE_ROW_25_Left_58
*1076 PHY_EDGE_ROW_25_Right_25
*1077 PHY_EDGE_ROW_26_Left_59
*1078 PHY_EDGE_ROW_26_Right_26
*1079 PHY_EDGE_ROW_27_Left_60
*1080 PHY_EDGE_ROW_27_Right_27
*1081 PHY_EDGE_ROW_28_Left_61
*1082 PHY_EDGE_ROW_28_Right_28
*1083 PHY_EDGE_ROW_29_Left_62
*1084 PHY_EDGE_ROW_29_Right_29
*1085 PHY_EDGE_ROW_2_Left_35
*1086 PHY_EDGE_ROW_2_Right_2
*1087 PHY_EDGE_ROW_30_Left_63
*1088 PHY_EDGE_ROW_30_Right_30
*1089 PHY_EDGE_ROW_31_Left_64
*1090 PHY_EDGE_ROW_31_Right_31
*1091 PHY_EDGE_ROW_32_Left_65
*1092 PHY_EDGE_ROW_32_Right_32
*1093 PHY_EDGE_ROW_3_Left_36
*1094 PHY_EDGE_ROW_3_Right_3
*1095 PHY_EDGE_ROW_4_Left_37
*1096 PHY_EDGE_ROW_4_Right_4
*1097 PHY_EDGE_ROW_5_Left_38
*1098 PHY_EDGE_ROW_5_Right_5
*1099 PHY_EDGE_ROW_6_Left_39
*1100 PHY_EDGE_ROW_6_Right_6
*1101 PHY_EDGE_ROW_7_Left_40
*1102 PHY_EDGE_ROW_7_Right_7
*1103 PHY_EDGE_ROW_8_Left_41
*1104 PHY_EDGE_ROW_8_Right_8
*1105 PHY_EDGE_ROW_9_Left_42
*1106 PHY_EDGE_ROW_9_Right_9
*1107 TAP_TAPCELL_ROW_0_66
*1108 TAP_TAPCELL_ROW_0_67
*1109 TAP_TAPCELL_ROW_0_68
*1110 TAP_TAPCELL_ROW_0_69
*1111 TAP_TAPCELL_ROW_0_70
*1112 TAP_TAPCELL_ROW_0_71
*1113 TAP_TAPCELL_ROW_10_100
*1114 TAP_TAPCELL_ROW_10_101
*1115 TAP_TAPCELL_ROW_10_99
*1116 TAP_TAPCELL_ROW_11_102
*1117 TAP_TAPCELL_ROW_11_103
*1118 TAP_TAPCELL_ROW_11_104
*1119 TAP_TAPCELL_ROW_12_105
*1120 TAP_TAPCELL_ROW_12_106
*1121 TAP_TAPCELL_ROW_12_107
*1122 TAP_TAPCELL_ROW_13_108
*1123 TAP_TAPCELL_ROW_13_109
*1124 TAP_TAPCELL_ROW_13_110
*1125 TAP_TAPCELL_ROW_14_111
*1126 TAP_TAPCELL_ROW_14_112
*1127 TAP_TAPCELL_ROW_14_113
*1128 TAP_TAPCELL_ROW_15_114
*1129 TAP_TAPCELL_ROW_15_115
*1130 TAP_TAPCELL_ROW_15_116
*1131 TAP_TAPCELL_ROW_16_117
*1132 TAP_TAPCELL_ROW_16_118
*1133 TAP_TAPCELL_ROW_16_119
*1134 TAP_TAPCELL_ROW_17_120
*1135 TAP_TAPCELL_ROW_17_121
*1136 TAP_TAPCELL_ROW_17_122
*1137 TAP_TAPCELL_ROW_18_123
*1138 TAP_TAPCELL_ROW_18_124
*1139 TAP_TAPCELL_ROW_18_125
*1140 TAP_TAPCELL_ROW_19_126
*1141 TAP_TAPCELL_ROW_19_127
*1142 TAP_TAPCELL_ROW_19_128
*1143 TAP_TAPCELL_ROW_1_72
*1144 TAP_TAPCELL_ROW_1_73
*1145 TAP_TAPCELL_ROW_1_74
*1146 TAP_TAPCELL_ROW_20_129
*1147 TAP_TAPCELL_ROW_20_130
*1148 TAP_TAPCELL_ROW_20_131
*1149 TAP_TAPCELL_ROW_21_132
*1150 TAP_TAPCELL_ROW_21_133
*1151 TAP_TAPCELL_ROW_21_134
*1152 TAP_TAPCELL_ROW_22_135
*1153 TAP_TAPCELL_ROW_22_136
*1154 TAP_TAPCELL_ROW_22_137
*1155 TAP_TAPCELL_ROW_23_138
*1156 TAP_TAPCELL_ROW_23_139
*1157 TAP_TAPCELL_ROW_23_140
*1158 TAP_TAPCELL_ROW_24_141
*1159 TAP_TAPCELL_ROW_24_142
*1160 TAP_TAPCELL_ROW_24_143
*1161 TAP_TAPCELL_ROW_25_144
*1162 TAP_TAPCELL_ROW_25_145
*1163 TAP_TAPCELL_ROW_25_146
*1164 TAP_TAPCELL_ROW_26_147
*1165 TAP_TAPCELL_ROW_26_148
*1166 TAP_TAPCELL_ROW_26_149
*1167 TAP_TAPCELL_ROW_27_150
*1168 TAP_TAPCELL_ROW_27_151
*1169 TAP_TAPCELL_ROW_27_152
*1170 TAP_TAPCELL_ROW_28_153
*1171 TAP_TAPCELL_ROW_28_154
*1172 TAP_TAPCELL_ROW_28_155
*1173 TAP_TAPCELL_ROW_29_156
*1174 TAP_TAPCELL_ROW_29_157
*1175 TAP_TAPCELL_ROW_29_158
*1176 TAP_TAPCELL_ROW_2_75
*1177 TAP_TAPCELL_ROW_2_76
*1178 TAP_TAPCELL_ROW_2_77
*1179 TAP_TAPCELL_ROW_30_159
*1180 TAP_TAPCELL_ROW_30_160
*1181 TAP_TAPCELL_ROW_30_161
*1182 TAP_TAPCELL_ROW_31_162
*1183 TAP_TAPCELL_ROW_31_163
*1184 TAP_TAPCELL_ROW_31_164
*1185 TAP_TAPCELL_ROW_32_165
*1186 TAP_TAPCELL_ROW_32_166
*1187 TAP_TAPCELL_ROW_32_167
*1188 TAP_TAPCELL_ROW_32_168
*1189 TAP_TAPCELL_ROW_32_169
*1190 TAP_TAPCELL_ROW_32_170
*1191 TAP_TAPCELL_ROW_3_78
*1192 TAP_TAPCELL_ROW_3_79
*1193 TAP_TAPCELL_ROW_3_80
*1194 TAP_TAPCELL_ROW_4_81
*1195 TAP_TAPCELL_ROW_4_82
*1196 TAP_TAPCELL_ROW_4_83
*1197 TAP_TAPCELL_ROW_5_84
*1198 TAP_TAPCELL_ROW_5_85
*1199 TAP_TAPCELL_ROW_5_86
*1200 TAP_TAPCELL_ROW_6_87
*1201 TAP_TAPCELL_ROW_6_88
*1202 TAP_TAPCELL_ROW_6_89
*1203 TAP_TAPCELL_ROW_7_90
*1204 TAP_TAPCELL_ROW_7_91
*1205 TAP_TAPCELL_ROW_7_92
*1206 TAP_TAPCELL_ROW_8_93
*1207 TAP_TAPCELL_ROW_8_94
*1208 TAP_TAPCELL_ROW_8_95
*1209 TAP_TAPCELL_ROW_9_96
*1210 TAP_TAPCELL_ROW_9_97
*1211 TAP_TAPCELL_ROW_9_98
*1212 _373_
*1213 _374_
*1214 _375_
*1215 _376_
*1216 _377_
*1217 _378_
*1218 _379_
*1219 _380_
*1220 _381_
*1221 _382_
*1222 _383_
*1223 _384_
*1224 _385_
*1225 _386_
*1226 _387_
*1227 _388_
*1228 _389_
*1229 _390_
*1230 _391_
*1231 _392_
*1232 _393_
*1233 _394_
*1234 _395_
*1235 _396_
*1236 _397_
*1237 _398_
*1238 _399_
*1239 _400_
*1240 _401_
*1241 _402_
*1242 _403_
*1243 _404_
*1244 _405_
*1245 _406_
*1246 _407_
*1247 _408_
*1248 _409_
*1249 _410_
*1250 _411_
*1251 _412_
*1252 _413_
*1253 _414_
*1254 _415_
*1255 _416_
*1256 _417_
*1257 _418_
*1258 _419_
*1259 _420_
*1260 _421_
*1261 _422_
*1262 _423_
*1263 _424_
*1264 _425_
*1265 _426_
*1266 _427_
*1267 _428_
*1268 _429_
*1269 _430_
*1270 _431_
*1271 _432_
*1272 _433_
*1273 _434_
*1274 _435_
*1275 _436_
*1276 _437_
*1277 _438_
*1278 _439_
*1279 _440_
*1280 _441_
*1281 _442_
*1282 _443_
*1283 _444_
*1284 _445_
*1285 _446_
*1286 _447_
*1287 _448_
*1288 _449_
*1289 _450_
*1290 _451_
*1291 _452_
*1292 _453_
*1293 _454_
*1294 _455_
*1295 _456_
*1296 _457_
*1297 _458_
*1298 _459_
*1299 _460_
*1300 _461_
*1301 _462_
*1302 _463_
*1303 _464_
*1304 _465_
*1305 _466_
*1306 _467_
*1307 _468_
*1308 _469_
*1309 _470_
*1310 _471_
*1311 _472_
*1312 _473_
*1313 _474_
*1314 _475_
*1315 _476_
*1316 _477_
*1317 _478_
*1318 _479_
*1319 _480_
*1320 _481_
*1321 _482_
*1322 _483_
*1323 _484_
*1324 _485_
*1325 _486_
*1326 _487_
*1327 _488_
*1328 _489_
*1329 _490_
*1330 _491_
*1331 _492_
*1332 _493_
*1333 _494_
*1334 _495_
*1335 _496_
*1336 _497_
*1337 _498_
*1338 _499_
*1339 _500_
*1340 _501_
*1341 _502_
*1342 _503_
*1343 _504_
*1344 _505_
*1345 _506_
*1346 _507_
*1347 _508_
*1348 _509_
*1349 _510_
*1350 _511_
*1351 _512_
*1352 _513_
*1353 _514_
*1354 _515_
*1355 _516_
*1356 _517_
*1357 _518_
*1358 _519_
*1359 _520_
*1360 _521_
*1361 _522_
*1362 _523_
*1363 _524_
*1364 _525_
*1365 _526_
*1366 _527_
*1367 _528_
*1368 _529_
*1369 _530_
*1370 _531_
*1371 _532_
*1372 _533_
*1373 _534_
*1374 _535_
*1375 _536_
*1376 _537_
*1377 _538_
*1378 _539_
*1379 _540_
*1380 _541_
*1381 _542_
*1382 _543_
*1383 _544_
*1384 _545_
*1385 _546_
*1386 _547_
*1387 _548_
*1388 _549_
*1389 _550_
*1390 _551_
*1391 _552_
*1392 _553_
*1393 _554_
*1394 _555_
*1395 _556_
*1396 _557_
*1397 _558_
*1398 _559_
*1399 _560_
*1400 _561_
*1401 _562_
*1402 _563_
*1403 _564_
*1404 _565_
*1405 _566_
*1406 _567_
*1407 _568_
*1408 _569_
*1409 _570_
*1410 _571_
*1411 _572_
*1412 _573_
*1413 _574_
*1414 _575_
*1415 _576_
*1416 _577_
*1417 _578_
*1418 _579_
*1419 _580_
*1420 _581_
*1421 _582_
*1422 _583_
*1423 _584_
*1424 _585_
*1425 _586_
*1426 _587_
*1427 _588_
*1428 _589_
*1429 _590_
*1430 _591_
*1431 _592_
*1432 _593_
*1433 _594_
*1434 _595_
*1435 _596_
*1436 _597_
*1437 _598_
*1438 _599_
*1439 _600_
*1440 _601_
*1441 _602_
*1442 _603_
*1443 _604_
*1444 _605_
*1445 _606_
*1446 _607_
*1447 _608_
*1448 _609_
*1449 _610_
*1450 _611_
*1451 _612_
*1452 _613_
*1453 _614_
*1454 _615_
*1455 _616_
*1456 _617_
*1457 _618_
*1458 _619_
*1459 _620_
*1460 _621_
*1461 _622_
*1462 _623_
*1463 _624_
*1464 _625_
*1465 _626_
*1466 _627_
*1467 _628_
*1468 _629_
*1469 _630_
*1470 _631_
*1471 _632_
*1472 _633_
*1473 _634_
*1474 _635_
*1475 _636_
*1476 _637_
*1477 _638_
*1478 _639_
*1479 _640_
*1480 _641_
*1481 _642_
*1482 _643_
*1483 _644_
*1484 _645_
*1485 _646_
*1486 _647_
*1487 _648_
*1488 _649_
*1489 _650_
*1490 _651_
*1491 _652_
*1492 _653_
*1493 _654_
*1494 _655_
*1495 _656_
*1496 _657_
*1497 _658_
*1498 _659_
*1499 _660_
*1500 _661_
*1501 _662_
*1502 _663_
*1503 _664_
*1504 _665_
*1505 _666_
*1506 _667_
*1507 _668_
*1508 _669_
*1509 _670_
*1510 _671_
*1511 _672_
*1512 _673_
*1513 _674_
*1514 _675_
*1515 _676_
*1516 _677_
*1517 _678_
*1518 _679_
*1519 _680_
*1520 _681_
*1521 _682_
*1522 _683_
*1523 _684_
*1524 _685_
*1525 _686_
*1526 _687_
*1527 _688_
*1528 _689_
*1529 _690_
*1530 _691_
*1531 _692_
*1532 _693_
*1533 _694_
*1534 _695_
*1535 _696_
*1536 _697_
*1537 _698_
*1538 _699_
*1539 _700_
*1540 _701_
*1541 _702_
*1542 _703_
*1543 _704_
*1544 _705_
*1545 _706_
*1546 _707_
*1547 _708_
*1548 _709_
*1549 _710_
*1550 _711_
*1551 _712_
*1552 _713_
*1553 _714_
*1554 _715_
*1555 _716_
*1556 _717_
*1557 _718_
*1558 _719_
*1559 _720_
*1560 _721_
*1561 _722_
*1562 _723_
*1563 _724_
*1564 _725_
*1565 _726_
*1566 _727_
*1567 _728_
*1568 _729_
*1569 _730_
*1570 _731_
*1571 _732_
*1572 _733_
*1573 _734_
*1574 _735_
*1575 _736_
*1576 _737_
*1577 _738_
*1578 _739_
*1579 _740_
*1580 _741_
*1581 _742_
*1582 _743_
*1583 _744_
*1584 _745_
*1585 _746_
*1586 _747_
*1587 _748_
*1588 _749_
*1589 _750_
*1590 _751_
*1591 _752_
*1592 _753_
*1593 _754_
*1594 _755_
*1595 _756_
*1596 _757_
*1597 _758_
*1598 _759_
*1599 _760_
*1600 _761_
*1601 _762_
*1602 _763_
*1603 _764_
*1604 _765_
*1605 _766_
*1606 _767_
*1607 _768_
*1608 _769_
*1609 _770_
*1610 _771_
*1611 _772_
*1612 _773_
*1613 _774_
*1614 _775_
*1615 _776_
*1616 _777_
*1617 input1
*1618 input10
*1619 input11
*1620 input12
*1621 input13
*1622 input14
*1623 input15
*1624 input16
*1625 input17
*1626 input18
*1627 input2
*1628 input3
*1629 input4
*1630 input5
*1631 input6
*1632 input7
*1633 input8
*1634 input9
*1635 output19
*1636 output20
*1637 output21
*1638 output22
*1639 output23
*1640 output24
*1641 output25
*1642 output26
*1643 output27
*1644 output28
*1645 output29
*1646 output30
*1647 output31
*1648 output32
*1649 output33
*1650 output34

*PORTS
a[0] I
a[1] I
a[2] I
a[3] I
a[4] I
a[5] I
a[6] I
a[7] I
b[0] I
b[1] I
b[2] I
b[3] I
b[4] I
b[5] I
b[6] I
b[7] I
clk I
out[0] O
out[10] O
out[11] O
out[12] O
out[13] O
out[14] O
out[15] O
out[1] O
out[2] O
out[3] O
out[4] O
out[5] O
out[6] O
out[7] O
out[8] O
out[9] O
reset I

*D_NET *3 0.000982758
*CONN
*P a[0] I
*I *1617:A I *D sky130_fd_sc_hd__clkbuf_1
*CAP
1 a[0] 0.000467451
2 *1617:A 0.000467451
3 *1617:A *1559:A0 4.78564e-05
*RES
1 a[0] *1617:A 11.805 
*END

*D_NET *4 0.000964042
*CONN
*P a[1] I
*I *1627:A I *D sky130_fd_sc_hd__clkbuf_1
*CAP
1 a[1] 0.000482021
2 *1627:A 0.000482021
*RES
1 a[1] *1627:A 11.805 
*END

*D_NET *5 0.000866726
*CONN
*P a[2] I
*I *1628:A I *D sky130_fd_sc_hd__clkbuf_1
*CAP
1 a[2] 0.000433363
2 *1628:A 0.000433363
*RES
1 a[2] *1628:A 11.115 
*END

*D_NET *6 0.000577696
*CONN
*P a[3] I
*I *1629:A I *D sky130_fd_sc_hd__clkbuf_1
*CAP
1 a[3] 0.000273228
2 *1629:A 0.000273228
3 *1629:A *1634:A 3.12401e-05
*RES
1 a[3] *1629:A 6.1045 
*END

*D_NET *7 0.000548062
*CONN
*P a[4] I
*I *1630:A I *D sky130_fd_sc_hd__clkbuf_1
*CAP
1 a[4] 0.000231501
2 *1630:A 0.000231501
3 *1630:A *1618:A 0
4 *1630:A *1620:A 0
5 *1630:A *418:20 2.21606e-05
6 *1630:A *418:22 6.28996e-05
*RES
1 a[4] *1630:A 5.61177 
*END

*D_NET *8 0.000575587
*CONN
*P a[5] I
*I *1631:A I *D sky130_fd_sc_hd__clkbuf_1
*CAP
1 a[5] 0.000234381
2 *1631:A 0.000234381
3 *1631:A *1632:A 0
4 *1631:A *418:28 0.000106824
*RES
1 a[5] *1631:A 5.86677 
*END

*D_NET *9 0.000598723
*CONN
*P a[6] I
*I *1632:A I *D sky130_fd_sc_hd__clkbuf_1
*CAP
1 a[6] 0.000253315
2 *1632:A 0.000253315
3 *1632:A *1633:A 7.82214e-05
4 *1632:A *418:34 1.38716e-05
5 *1631:A *1632:A 0
*RES
1 a[6] *1632:A 6.1045 
*END

*D_NET *10 0.000518513
*CONN
*P a[7] I
*I *1633:A I *D sky130_fd_sc_hd__clkbuf_1
*CAP
1 a[7] 0.000187912
2 *1633:A 0.000187912
3 *1633:A *418:34 6.44676e-05
4 *1632:A *1633:A 7.82214e-05
*RES
1 a[7] *1633:A 5.35677 
*END

*D_NET *11 0.000469458
*CONN
*P b[0] I
*I *1634:A I *D sky130_fd_sc_hd__clkbuf_1
*CAP
1 b[0] 0.000219109
2 *1634:A 0.000219109
3 *1634:A *1618:A 0
4 *1634:A *418:12 0
5 *1629:A *1634:A 3.12401e-05
*RES
1 b[0] *1634:A 5.35677 
*END

*D_NET *12 0.000721635
*CONN
*P b[1] I
*I *1618:A I *D sky130_fd_sc_hd__clkbuf_1
*CAP
1 b[1] 0.000306494
2 *1618:A 0.000306494
3 *1618:A *418:18 0.000108647
4 *1630:A *1618:A 0
5 *1634:A *1618:A 0
*RES
1 b[1] *1618:A 5.9909 
*END

*D_NET *13 0.000554928
*CONN
*P b[2] I
*I *1619:A I *D sky130_fd_sc_hd__clkbuf_1
*CAP
1 b[2] 0.00022881
2 *1619:A 0.00022881
3 *1619:A *1620:A 0
4 *1619:A *1626:A 3.28409e-05
5 *1619:A *418:24 6.44676e-05
*RES