* NGSPICE file created from pipelined_multiplier.ext - technology: sky130A

* Black-box entry subcircuit for sky130_ef_sc_hd__decap_12 abstract view
.subckt sky130_ef_sc_hd__decap_12 VPWR VGND VPB VNB
.ends

* Black-box entry subcircuit for sky130_fd_sc_hd__fill_2 abstract view
.subckt sky130_fd_sc_hd__fill_2 VGND VNB VPB VPWR
.ends

* Black-box entry subcircuit for sky130_fd_sc_hd__nand2_1 abstract view
.subckt sky130_fd_sc_hd__nand2_1 A B VGND VNB VPB VPWR Y
.ends

* Black-box entry subcircuit for sky130_fd_sc_hd__and2_1 abstract view
.subckt sky130_fd_sc_hd__and2_1 A B VGND VNB VPB VPWR X
.ends

* Black-box entry subcircuit for sky130_fd_sc_hd__fill_1 abstract view
.subckt sky130_fd_sc_hd__fill_1 VGND VNB VPB VPWR
.ends

* Black-box entry subcircuit for sky130_fd_sc_hd__decap_4 abstract view
.subckt sky130_fd_sc_hd__decap_4 VGND VNB VPB VPWR
.ends

* Black-box entry subcircuit for sky130_fd_sc_hd__and4_1 abstract view
.subckt sky130_fd_sc_hd__and4_1 A B C D VGND VNB VPB VPWR X
.ends

* Black-box entry subcircuit for sky130_fd_sc_hd__tapvpwrvgnd_1 abstract view
.subckt sky130_fd_sc_hd__tapvpwrvgnd_1 VGND VPWR
.ends

* Black-box entry subcircuit for sky130_fd_sc_hd__decap_8 abstract view
.subckt sky130_fd_sc_hd__decap_8 VGND VNB VPB VPWR
.ends

* Black-box entry subcircuit for sky130_fd_sc_hd__decap_6 abstract view
.subckt sky130_fd_sc_hd__decap_6 VGND VNB VPB VPWR
.ends

* Black-box entry subcircuit for sky130_fd_sc_hd__and2b_1 abstract view
.subckt sky130_fd_sc_hd__and2b_1 A_N B VGND VNB VPB VPWR X
.ends

* Black-box entry subcircuit for sky130_fd_sc_hd__a2111oi_1 abstract view
.subckt sky130_fd_sc_hd__a2111oi_1 A1 A2 B1 C1 D1 VGND VNB VPB VPWR Y
.ends

* Black-box entry subcircuit for sky130_fd_sc_hd__mux2_1 abstract view
.subckt sky130_fd_sc_hd__mux2_1 A0 A1 S VGND VNB VPB VPWR X
.ends

* Black-box entry subcircuit for sky130_fd_sc_hd__a31o_1 abstract view
.subckt sky130_fd_sc_hd__a31o_1 A1 A2 A3 B1 VGND VNB VPB VPWR X
.ends

* Black-box entry subcircuit for sky130_fd_sc_hd__buf_1 abstract view
.subckt sky130_fd_sc_hd__buf_1 A VGND VNB VPB VPWR X
.ends

* Black-box entry subcircuit for sky130_fd_sc_hd__clkbuf_1 abstract view
.subckt sky130_fd_sc_hd__clkbuf_1 A VGND VNB VPB VPWR X
.ends

* Black-box entry subcircuit for sky130_fd_sc_hd__xnor2_1 abstract view
.subckt sky130_fd_sc_hd__xnor2_1 A B VGND VNB VPB VPWR Y
.ends

* Black-box entry subcircuit for sky130_fd_sc_hd__o21bai_1 abstract view
.subckt sky130_fd_sc_hd__o21bai_1 A1 A2 B1_N VGND VNB VPB VPWR Y
.ends

* Black-box entry subcircuit for sky130_fd_sc_hd__decap_3 abstract view
.subckt sky130_fd_sc_hd__decap_3 VGND VNB VPB VPWR
.ends

* Black-box entry subcircuit for sky130_fd_sc_hd__nor2_1 abstract view
.subckt sky130_fd_sc_hd__nor2_1 A B VGND VNB VPB VPWR Y
.ends

* Black-box entry subcircuit for sky130_fd_sc_hd__clkbuf_4 abstract view
.subckt sky130_fd_sc_hd__clkbuf_4 A VGND VNB VPB VPWR X
.ends

* Black-box entry subcircuit for sky130_fd_sc_hd__a21oi_1 abstract view
.subckt sky130_fd_sc_hd__a21oi_1 A1 A2 B1 VGND VNB VPB VPWR Y
.ends

* Black-box entry subcircuit for sky130_fd_sc_hd__nor3_1 abstract view
.subckt sky130_fd_sc_hd__nor3_1 A B C VGND VNB VPB VPWR Y
.ends

* Black-box entry subcircuit for sky130_fd_sc_hd__o21ba_1 abstract view
.subckt sky130_fd_sc_hd__o21ba_1 A1 A2 B1_N VGND VNB VPB VPWR X
.ends

* Black-box entry subcircuit for sky130_fd_sc_hd__a21o_1 abstract view
.subckt sky130_fd_sc_hd__a21o_1 A1 A2 B1 VGND VNB VPB VPWR X
.ends

* Black-box entry subcircuit for sky130_fd_sc_hd__xor2_1 abstract view
.subckt sky130_fd_sc_hd__xor2_1 A B VGND VNB VPB VPWR X
.ends

* Black-box entry subcircuit for sky130_fd_sc_hd__o21ai_1 abstract view
.subckt sky130_fd_sc_hd__o21ai_1 A1 A2 B1 VGND VNB VPB VPWR Y
.ends

* Black-box entry subcircuit for sky130_fd_sc_hd__inv_2 abstract view
.subckt sky130_fd_sc_hd__inv_2 A VGND VNB VPB VPWR Y
.ends

* Black-box entry subcircuit for sky130_fd_sc_hd__and3_1 abstract view
.subckt sky130_fd_sc_hd__and3_1 A B C VGND VNB VPB VPWR X
.ends

* Black-box entry subcircuit for sky130_fd_sc_hd__or2b_1 abstract view
.subckt sky130_fd_sc_hd__or2b_1 A B_N VGND VNB VPB VPWR X
.ends

* Black-box entry subcircuit for sky130_fd_sc_hd__a22oi_1 abstract view
.subckt sky130_fd_sc_hd__a22oi_1 A1 A2 B1 B2 VGND VNB VPB VPWR Y
.ends

* Black-box entry subcircuit for sky130_fd_sc_hd__nand3_1 abstract view
.subckt sky130_fd_sc_hd__nand3_1 A B C VGND VNB VPB VPWR Y
.ends

* Black-box entry subcircuit for sky130_fd_sc_hd__dfrtp_1 abstract view
.subckt sky130_fd_sc_hd__dfrtp_1 CLK D RESET_B VGND VNB VPB VPWR Q
.ends

* Black-box entry subcircuit for sky130_fd_sc_hd__a22o_1 abstract view
.subckt sky130_fd_sc_hd__a22o_1 A1 A2 B1 B2 VGND VNB VPB VPWR X
.ends

* Black-box entry subcircuit for sky130_fd_sc_hd__or2_1 abstract view
.subckt sky130_fd_sc_hd__or2_1 A B VGND VNB VPB VPWR X
.ends

* Black-box entry subcircuit for sky130_fd_sc_hd__o21bai_2 abstract view
.subckt sky130_fd_sc_hd__o21bai_2 A1 A2 B1_N VGND VNB VPB VPWR Y
.ends

* Black-box entry subcircuit for sky130_fd_sc_hd__dfxtp_1 abstract view
.subckt sky130_fd_sc_hd__dfxtp_1 CLK D VGND VNB VPB VPWR Q
.ends

* Black-box entry subcircuit for sky130_fd_sc_hd__o21a_1 abstract view
.subckt sky130_fd_sc_hd__o21a_1 A1 A2 B1 VGND VNB VPB VPWR X
.ends

* Black-box entry subcircuit for sky130_fd_sc_hd__a22oi_2 abstract view
.subckt sky130_fd_sc_hd__a22oi_2 A1 A2 B1 B2 VGND VNB VPB VPWR Y
.ends

* Black-box entry subcircuit for sky130_fd_sc_hd__or3_1 abstract view
.subckt sky130_fd_sc_hd__or3_1 A B C VGND VNB VPB VPWR X
.ends

* Black-box entry subcircuit for sky130_fd_sc_hd__a21boi_1 abstract view
.subckt sky130_fd_sc_hd__a21boi_1 A1 A2 B1_N VGND VNB VPB VPWR Y
.ends

* Black-box entry subcircuit for sky130_fd_sc_hd__and3_2 abstract view
.subckt sky130_fd_sc_hd__and3_2 A B C VGND VNB VPB VPWR X
.ends

* Black-box entry subcircuit for sky130_fd_sc_hd__o211ai_2 abstract view
.subckt sky130_fd_sc_hd__o211ai_2 A1 A2 B1 C1 VGND VNB VPB VPWR Y
.ends

* Black-box entry subcircuit for sky130_fd_sc_hd__buf_4 abstract view
.subckt sky130_fd_sc_hd__buf_4 A VGND VNB VPB VPWR X
.ends

* Black-box entry subcircuit for sky130_fd_sc_hd__nand3b_2 abstract view
.subckt sky130_fd_sc_hd__nand3b_2 A_N B C VGND VNB VPB VPWR Y
.ends

* Black-box entry subcircuit for sky130_fd_sc_hd__a211o_1 abstract view
.subckt sky130_fd_sc_hd__a211o_1 A1 A2 B1 C1 VGND VNB VPB VPWR X
.ends

* Black-box entry subcircuit for sky130_fd_sc_hd__buf_2 abstract view
.subckt sky130_fd_sc_hd__buf_2 A VGND VNB VPB VPWR X
.ends

* Black-box entry subcircuit for sky130_fd_sc_hd__dfxtp_2 abstract view
.subckt sky130_fd_sc_hd__dfxtp_2 CLK D VGND VNB VPB VPWR Q
.ends

* Black-box entry subcircuit for sky130_fd_sc_hd__o2bb2a_1 abstract view
.subckt sky130_fd_sc_hd__o2bb2a_1 A1_N A2_N B1 B2 VGND VNB VPB VPWR X
.ends

* Black-box entry subcircuit for sky130_fd_sc_hd__a21bo_1 abstract view
.subckt sky130_fd_sc_hd__a21bo_1 A1 A2 B1_N VGND VNB VPB VPWR X
.ends

* Black-box entry subcircuit for sky130_fd_sc_hd__nand4_1 abstract view
.subckt sky130_fd_sc_hd__nand4_1 A B C D VGND VNB VPB VPWR Y
.ends

* Black-box entry subcircuit for sky130_fd_sc_hd__nand4_2 abstract view
.subckt sky130_fd_sc_hd__nand4_2 A B C D VGND VNB VPB VPWR Y
.ends

* Black-box entry subcircuit for sky130_fd_sc_hd__a211oi_2 abstract view
.subckt sky130_fd_sc_hd__a211oi_2 A1 A2 B1 C1 VGND VNB VPB VPWR Y
.ends

* Black-box entry subcircuit for sky130_fd_sc_hd__and3b_1 abstract view
.subckt sky130_fd_sc_hd__and3b_1 A_N B C VGND VNB VPB VPWR X
.ends

* Black-box entry subcircuit for sky130_fd_sc_hd__o211a_2 abstract view
.subckt sky130_fd_sc_hd__o211a_2 A1 A2 B1 C1 VGND VNB VPB VPWR X
.ends

* Black-box entry subcircuit for sky130_fd_sc_hd__nand3_2 abstract view
.subckt sky130_fd_sc_hd__nand3_2 A B C VGND VNB VPB VPWR Y
.ends

* Black-box entry subcircuit for sky130_fd_sc_hd__buf_8 abstract view
.subckt sky130_fd_sc_hd__buf_8 A VGND VNB VPB VPWR X
.ends

* Black-box entry subcircuit for sky130_fd_sc_hd__clkbuf_2 abstract view
.subckt sky130_fd_sc_hd__clkbuf_2 A VGND VNB VPB VPWR X
.ends

* Black-box entry subcircuit for sky130_fd_sc_hd__a41o_1 abstract view
.subckt sky130_fd_sc_hd__a41o_1 A1 A2 A3 A4 B1 VGND VNB VPB VPWR X
.ends

* Black-box entry subcircuit for sky130_fd_sc_hd__a211oi_1 abstract view
.subckt sky130_fd_sc_hd__a211oi_1 A1 A2 B1 C1 VGND VNB VPB VPWR Y
.ends

* Black-box entry subcircuit for sky130_fd_sc_hd__o211a_1 abstract view
.subckt sky130_fd_sc_hd__o211a_1 A1 A2 B1 C1 VGND VNB VPB VPWR X
.ends

* Black-box entry subcircuit for sky130_fd_sc_hd__nor3b_2 abstract view
.subckt sky130_fd_sc_hd__nor3b_2 A B C_N VGND VNB VPB VPWR Y
.ends

.subckt pipelined_multiplier VGND VPWR a[0] a[1] a[2] a[3] a[4] a[5] a[6] a[7] b[0]
+ b[1] b[2] b[3] b[4] b[5] b[6] b[7] clk out[0] out[10] out[11] out[12] out[13] out[14]
+ out[15] out[1] out[2] out[3] out[4] out[5] out[6] out[7] out[8] out[9] reset
XFILLER_0_27_82 VPWR VGND VPWR VGND sky130_ef_sc_hd__decap_12
XFILLER_0_7_81 VGND VGND VPWR VPWR sky130_fd_sc_hd__fill_2
X_432_ _364_ _052_ VGND VGND VPWR VPWR _086_ sky130_fd_sc_hd__nand2_1
X_501_ temp_b\[2\] temp_a\[5\] VGND VGND VPWR VPWR _154_ sky130_fd_sc_hd__and2_1
XFILLER_0_3_39 VPWR VGND VPWR VGND sky130_ef_sc_hd__decap_12
XFILLER_0_13_95 VGND VGND VPWR VPWR sky130_fd_sc_hd__fill_1
XFILLER_0_1_163 VGND VGND VPWR VPWR sky130_fd_sc_hd__decap_4
X_415_ _357_ _361_ temp_a\[3\] _069_ VGND VGND VPWR VPWR _070_ sky130_fd_sc_hd__and4_1
XTAP_TAPCELL_ROW_20_131 VGND VPWR sky130_fd_sc_hd__tapvpwrvgnd_1
XFILLER_0_18_29 VPWR VGND VPWR VGND sky130_ef_sc_hd__decap_12
XFILLER_0_4_60 VPWR VGND VPWR VGND sky130_ef_sc_hd__decap_12
XFILLER_0_0_29 VGND VGND VPWR VPWR sky130_fd_sc_hd__decap_8
XFILLER_0_9_27 VGND VGND VPWR VPWR sky130_fd_sc_hd__decap_4
XFILLER_0_10_85 VGND VGND VPWR VPWR sky130_fd_sc_hd__decap_8
XFILLER_0_25_106 VGND VGND VPWR VPWR sky130_fd_sc_hd__decap_6
X_680_ _326_ _312_ VGND VGND VPWR VPWR _327_ sky130_fd_sc_hd__and2b_1
XFILLER_0_21_84 VGND VGND VPWR VPWR sky130_fd_sc_hd__decap_4
XFILLER_0_21_51 VGND VGND VPWR VPWR sky130_fd_sc_hd__decap_4
XFILLER_0_16_139 VGND VGND VPWR VPWR sky130_fd_sc_hd__fill_1
XFILLER_0_26_29 VPWR VGND VPWR VGND sky130_ef_sc_hd__decap_12
XFILLER_0_26_18 VGND VGND VPWR VPWR sky130_fd_sc_hd__fill_1
XFILLER_0_22_109 VPWR VGND VPWR VGND sky130_ef_sc_hd__decap_12
X_663_ _206_ _267_ _268_ _292_ _265_ VGND VGND VPWR VPWR _311_ sky130_fd_sc_hd__a2111oi_1
XFILLER_0_1_61 VGND VGND VPWR VPWR sky130_fd_sc_hd__fill_1
X_732_ net7 _118_ net18 VGND VGND VPWR VPWR _355_ sky130_fd_sc_hd__mux2_1
X_594_ _069_ temp_b\[5\] _220_ _219_ VGND VGND VPWR VPWR _244_ sky130_fd_sc_hd__a31o_1
XFILLER_0_32_83 VGND VGND VPWR VPWR sky130_fd_sc_hd__fill_1
XFILLER_0_21_153 VPWR VGND VPWR VGND sky130_ef_sc_hd__decap_12
XFILLER_0_16_62 VGND VGND VPWR VPWR sky130_fd_sc_hd__decap_4
XFILLER_0_12_153 VGND VGND VPWR VPWR sky130_fd_sc_hd__fill_1
Xoutput31 net31 VGND VGND VPWR VPWR out[6] sky130_fd_sc_hd__buf_1
Xoutput20 net20 VGND VGND VPWR VPWR out[10] sky130_fd_sc_hd__clkbuf_1
X_577_ _215_ _227_ VGND VGND VPWR VPWR _228_ sky130_fd_sc_hd__xnor2_1
X_646_ _293_ _294_ VGND VGND VPWR VPWR _007_ sky130_fd_sc_hd__xnor2_1
X_715_ _346_ VGND VGND VPWR VPWR _037_ sky130_fd_sc_hd__clkbuf_1
XFILLER_0_27_94 VGND VGND VPWR VPWR sky130_fd_sc_hd__decap_8
X_431_ _068_ _071_ _070_ VGND VGND VPWR VPWR _085_ sky130_fd_sc_hd__o21bai_1
XTAP_TAPCELL_ROW_23_140 VGND VPWR sky130_fd_sc_hd__tapvpwrvgnd_1
X_500_ _151_ _152_ VGND VGND VPWR VPWR _153_ sky130_fd_sc_hd__xnor2_1
XFILLER_0_1_120 VGND VGND VPWR VPWR sky130_fd_sc_hd__decap_3
X_629_ _276_ _277_ VGND VGND VPWR VPWR _278_ sky130_fd_sc_hd__nor2_1
X_414_ temp_a\[4\] VGND VGND VPWR VPWR _069_ sky130_fd_sc_hd__clkbuf_4
XPHY_EDGE_ROW_21_Right_21 VGND VGND VPWR VPWR sky130_fd_sc_hd__decap_3
XPHY_EDGE_ROW_12_Right_12 VGND VGND VPWR VPWR sky130_fd_sc_hd__decap_3
XFILLER_0_4_72 VPWR VGND VPWR VGND sky130_ef_sc_hd__decap_12
XPHY_EDGE_ROW_30_Right_30 VGND VGND VPWR VPWR sky130_fd_sc_hd__decap_3
XFILLER_0_10_97 VPWR VGND VPWR VGND sky130_ef_sc_hd__decap_12
XFILLER_0_18_181 VGND VGND VPWR VPWR sky130_fd_sc_hd__decap_8
XFILLER_0_24_184 VGND VGND VPWR VPWR sky130_fd_sc_hd__decap_8
XFILLER_0_15_140 VPWR VGND VPWR VGND sky130_ef_sc_hd__decap_12
X_662_ _263_ _290_ _292_ VGND VGND VPWR VPWR _310_ sky130_fd_sc_hd__a21oi_1
X_731_ _354_ VGND VGND VPWR VPWR _045_ sky130_fd_sc_hd__clkbuf_1
XFILLER_0_21_176 VPWR VGND VPWR VGND sky130_ef_sc_hd__decap_12
XFILLER_0_21_165 VGND VGND VPWR VPWR sky130_fd_sc_hd__decap_3
XFILLER_0_21_110 VGND VGND VPWR VPWR sky130_fd_sc_hd__fill_2
XFILLER_0_16_85 VGND VGND VPWR VPWR sky130_fd_sc_hd__decap_4
XPHY_EDGE_ROW_16_Left_49 VGND VGND VPWR VPWR sky130_fd_sc_hd__decap_3
X_593_ _213_ _214_ _227_ VGND VGND VPWR VPWR _243_ sky130_fd_sc_hd__nor3_1
XFILLER_0_12_165 VPWR VGND VPWR VGND sky130_ef_sc_hd__decap_12
XPHY_EDGE_ROW_6_Right_6 VGND VGND VPWR VPWR sky130_fd_sc_hd__decap_3
Xoutput32 net32 VGND VGND VPWR VPWR out[7] sky130_fd_sc_hd__buf_1
X_645_ _264_ _269_ _265_ VGND VGND VPWR VPWR _294_ sky130_fd_sc_hd__o21ba_1
Xoutput21 net21 VGND VGND VPWR VPWR out[11] sky130_fd_sc_hd__clkbuf_1
X_576_ _224_ _226_ VGND VGND VPWR VPWR _227_ sky130_fd_sc_hd__xnor2_1
X_714_ net14 _110_ _343_ VGND VGND VPWR VPWR _346_ sky130_fd_sc_hd__mux2_1
X_430_ _067_ _076_ _075_ VGND VGND VPWR VPWR _084_ sky130_fd_sc_hd__a21o_1
X_559_ _052_ _110_ _187_ _186_ VGND VGND VPWR VPWR _210_ sky130_fd_sc_hd__a31o_1
XFILLER_0_1_110 VGND VGND VPWR VPWR sky130_fd_sc_hd__fill_2
X_628_ _087_ temp_b\[6\] VGND VGND VPWR VPWR _277_ sky130_fd_sc_hd__and2_1
XPHY_EDGE_ROW_19_Left_52 VGND VGND VPWR VPWR sky130_fd_sc_hd__decap_3
X_413_ _366_ _364_ VGND VGND VPWR VPWR _068_ sky130_fd_sc_hd__nand2_1
XPHY_EDGE_ROW_4_Left_37 VGND VGND VPWR VPWR sky130_fd_sc_hd__decap_3
XFILLER_0_19_41 VGND VGND VPWR VPWR sky130_fd_sc_hd__fill_1
XFILLER_0_19_30 VGND VGND VPWR VPWR sky130_fd_sc_hd__fill_1
XFILLER_0_24_152 VPWR VGND VPWR VGND sky130_ef_sc_hd__decap_12
XFILLER_0_24_130 VGND VGND VPWR VPWR sky130_fd_sc_hd__decap_6
XFILLER_0_16_119 VPWR VGND VPWR VGND sky130_ef_sc_hd__decap_12
XFILLER_0_15_163 VGND VGND VPWR VPWR sky130_fd_sc_hd__decap_4
XFILLER_0_15_152 VGND VGND VPWR VPWR sky130_fd_sc_hd__fill_2
XFILLER_0_21_188 VGND VGND VPWR VPWR sky130_fd_sc_hd__decap_4
X_592_ _224_ _226_ VGND VGND VPWR VPWR _242_ sky130_fd_sc_hd__nor2_1
XPHY_EDGE_ROW_7_Left_40 VGND VGND VPWR VPWR sky130_fd_sc_hd__decap_3
X_661_ _306_ _308_ VGND VGND VPWR VPWR _309_ sky130_fd_sc_hd__xor2_1
X_730_ net6 _087_ net18 VGND VGND VPWR VPWR _354_ sky130_fd_sc_hd__mux2_1
XFILLER_0_32_85 VPWR VGND VPWR VGND sky130_ef_sc_hd__decap_12
XFILLER_0_32_41 VGND VGND VPWR VPWR sky130_fd_sc_hd__decap_4
XFILLER_0_12_177 VGND VGND VPWR VPWR sky130_fd_sc_hd__decap_4
XFILLER_0_8_149 VGND VGND VPWR VPWR sky130_fd_sc_hd__fill_1
Xoutput33 net33 VGND VGND VPWR VPWR out[8] sky130_fd_sc_hd__buf_1
X_575_ _190_ _195_ _225_ VGND VGND VPWR VPWR _226_ sky130_fd_sc_hd__a21oi_1
X_644_ _291_ _292_ VGND VGND VPWR VPWR _293_ sky130_fd_sc_hd__nor2_1
X_713_ _345_ VGND VGND VPWR VPWR _036_ sky130_fd_sc_hd__clkbuf_1
Xoutput22 net22 VGND VGND VPWR VPWR out[12] sky130_fd_sc_hd__buf_1
XFILLER_0_9_3 VPWR VGND VPWR VGND sky130_ef_sc_hd__decap_12
X_489_ temp_a\[1\] temp_b\[5\] _113_ _112_ VGND VGND VPWR VPWR _142_ sky130_fd_sc_hd__a31o_1
X_558_ _360_ _146_ _183_ _182_ VGND VGND VPWR VPWR _209_ sky130_fd_sc_hd__a31o_1
X_627_ _087_ _110_ _252_ _251_ VGND VGND VPWR VPWR _276_ sky130_fd_sc_hd__a31o_1
XTAP_TAPCELL_ROW_3_80 VGND VPWR sky130_fd_sc_hd__tapvpwrvgnd_1
X_412_ _065_ _066_ VGND VGND VPWR VPWR _067_ sky130_fd_sc_hd__nor2_1
XPHY_EDGE_ROW_20_Left_53 VGND VGND VPWR VPWR sky130_fd_sc_hd__decap_3
XFILLER_0_4_41 VGND VGND VPWR VPWR sky130_fd_sc_hd__decap_4
XFILLER_0_4_85 VPWR VGND VPWR VGND sky130_ef_sc_hd__decap_12
XFILLER_0_28_117 VPWR VGND VPWR VGND sky130_ef_sc_hd__decap_12
XTAP_TAPCELL_ROW_0_70 VGND VPWR sky130_fd_sc_hd__tapvpwrvgnd_1
XFILLER_0_27_172 VPWR VGND VPWR VGND sky130_ef_sc_hd__decap_12
XFILLER_0_21_10 VGND VGND VPWR VPWR sky130_fd_sc_hd__fill_1
XFILLER_0_18_161 VPWR VGND VPWR VGND sky130_ef_sc_hd__decap_12
XFILLER_0_1_86 VGND VGND VPWR VPWR sky130_fd_sc_hd__decap_3
X_591_ _052_ _106_ _210_ _214_ VGND VGND VPWR VPWR _241_ sky130_fd_sc_hd__a31o_1
X_660_ _271_ _288_ _307_ VGND VGND VPWR VPWR _308_ sky130_fd_sc_hd__a21o_1
XFILLER_0_32_97 VPWR VGND VPWR VGND sky130_ef_sc_hd__decap_12
XFILLER_0_8_139 VGND VGND VPWR VPWR sky130_fd_sc_hd__fill_1
XFILLER_0_32_3 VPWR VGND VPWR VGND sky130_ef_sc_hd__decap_12
Xoutput34 net34 VGND VGND VPWR VPWR out[9] sky130_fd_sc_hd__buf_1
X_712_ net13 _064_ _343_ VGND VGND VPWR VPWR _345_ sky130_fd_sc_hd__mux2_1
Xoutput23 net23 VGND VGND VPWR VPWR out[13] sky130_fd_sc_hd__clkbuf_1
X_643_ _259_ _270_ _289_ VGND VGND VPWR VPWR _292_ sky130_fd_sc_hd__a21oi_1
X_574_ _193_ _194_ VGND VGND VPWR VPWR _225_ sky130_fd_sc_hd__and2b_1
XTAP_TAPCELL_ROW_32_165 VGND VPWR sky130_fd_sc_hd__tapvpwrvgnd_1
XFILLER_0_4_175 VGND VGND VPWR VPWR sky130_fd_sc_hd__decap_3
X_488_ _138_ _141_ VGND VGND VPWR VPWR _012_ sky130_fd_sc_hd__xnor2_1
X_557_ _178_ _201_ VGND VGND VPWR VPWR _208_ sky130_fd_sc_hd__nand2_1
X_626_ _272_ _274_ VGND VGND VPWR VPWR _275_ sky130_fd_sc_hd__nand2_1
XFILLER_0_1_189 VGND VGND VPWR VPWR sky130_fd_sc_hd__decap_3
XFILLER_0_1_167 VGND VGND VPWR VPWR sky130_fd_sc_hd__fill_1
XFILLER_0_1_101 VGND VGND VPWR VPWR sky130_fd_sc_hd__fill_1
X_411_ temp_a\[0\] _360_ _049_ _064_ VGND VGND VPWR VPWR _066_ sky130_fd_sc_hd__and4_1
XTAP_TAPCELL_ROW_11_102 VGND VPWR sky130_fd_sc_hd__tapvpwrvgnd_1
X_609_ _242_ _243_ _258_ VGND VGND VPWR VPWR _259_ sky130_fd_sc_hd__o21ai_1
XFILLER_0_4_53 VGND VGND VPWR VPWR sky130_fd_sc_hd__fill_1
XFILLER_0_4_97 VPWR VGND VPWR VGND sky130_ef_sc_hd__decap_12
XFILLER_0_28_129 VGND VGND VPWR VPWR sky130_fd_sc_hd__fill_2
XTAP_TAPCELL_ROW_0_71 VGND VPWR sky130_fd_sc_hd__tapvpwrvgnd_1
XFILLER_0_27_184 VGND VGND VPWR VPWR sky130_fd_sc_hd__decap_8
XFILLER_0_18_173 VGND VGND VPWR VPWR sky130_fd_sc_hd__decap_4
XFILLER_0_27_6 VPWR VGND VPWR VGND sky130_ef_sc_hd__decap_12
XFILLER_0_21_88 VGND VGND VPWR VPWR sky130_fd_sc_hd__fill_1
XFILLER_0_21_55 VGND VGND VPWR VPWR sky130_fd_sc_hd__fill_1
XFILLER_0_15_121 VPWR VGND VPWR VGND sky130_ef_sc_hd__decap_12
X_590_ _209_ _231_ VGND VGND VPWR VPWR _240_ sky130_fd_sc_hd__nand2_1
XFILLER_0_32_65 VGND VGND VPWR VPWR sky130_fd_sc_hd__fill_1
XFILLER_0_16_77 VGND VGND VPWR VPWR sky130_fd_sc_hd__decap_6
XFILLER_0_16_66 VGND VGND VPWR VPWR sky130_fd_sc_hd__fill_1
XFILLER_0_25_3 VGND VGND VPWR VPWR sky130_fd_sc_hd__decap_8
Xoutput24 net24 VGND VGND VPWR VPWR out[14] sky130_fd_sc_hd__buf_1
XPHY_EDGE_ROW_28_Right_28 VGND VGND VPWR VPWR sky130_fd_sc_hd__decap_3
XPHY_EDGE_ROW_19_Right_19 VGND VGND VPWR VPWR sky130_fd_sc_hd__decap_3
X_711_ _344_ VGND VGND VPWR VPWR _035_ sky130_fd_sc_hd__clkbuf_1
X_642_ _290_ VGND VGND VPWR VPWR _291_ sky130_fd_sc_hd__inv_2
X_573_ _218_ _223_ VGND VGND VPWR VPWR _224_ sky130_fd_sc_hd__xnor2_1
XTAP_TAPCELL_ROW_32_166 VGND VPWR sky130_fd_sc_hd__tapvpwrvgnd_1
XFILLER_0_4_121 VGND VGND VPWR VPWR sky130_fd_sc_hd__fill_2
X_625_ _273_ VGND VGND VPWR VPWR _274_ sky130_fd_sc_hd__inv_2
X_487_ _082_ _135_ _140_ VGND VGND VPWR VPWR _141_ sky130_fd_sc_hd__and3_1
X_556_ _200_ _199_ VGND VGND VPWR VPWR _207_ sky130_fd_sc_hd__or2b_1
XTAP_TAPCELL_ROW_14_111 VGND VPWR sky130_fd_sc_hd__tapvpwrvgnd_1
XFILLER_0_1_135 VGND VGND VPWR VPWR sky130_fd_sc_hd__decap_8
XFILLER_0_1_113 VGND VGND VPWR VPWR sky130_fd_sc_hd__decap_3
X_410_ _360_ _049_ _064_ temp_a\[0\] VGND VGND VPWR VPWR _065_ sky130_fd_sc_hd__a22oi_1
XTAP_TAPCELL_ROW_11_103 VGND VPWR sky130_fd_sc_hd__tapvpwrvgnd_1
X_539_ temp_b\[1\] temp_a\[6\] VGND VGND VPWR VPWR _191_ sky130_fd_sc_hd__and2_1
X_608_ _250_ _257_ VGND VGND VPWR VPWR _258_ sky130_fd_sc_hd__xor2_1
XFILLER_0_10_46 VPWR VGND VPWR VGND sky130_ef_sc_hd__decap_12
XFILLER_0_30_147 VPWR VGND VPWR VGND sky130_ef_sc_hd__decap_12
XFILLER_0_15_188 VGND VGND VPWR VPWR sky130_fd_sc_hd__fill_1
XFILLER_0_15_177 VGND VGND VPWR VPWR sky130_fd_sc_hd__fill_2
XFILLER_0_32_77 VGND VGND VPWR VPWR sky130_fd_sc_hd__decap_3
XFILLER_0_21_169 VGND VGND VPWR VPWR sky130_fd_sc_hd__decap_4
XFILLER_0_8_108 VPWR VGND VPWR VGND sky130_ef_sc_hd__decap_12
XFILLER_0_18_3 VGND VGND VPWR VPWR sky130_fd_sc_hd__fill_1
XFILLER_0_12_136 VGND VGND VPWR VPWR sky130_fd_sc_hd__decap_4
X_710_ net12 _049_ _343_ VGND VGND VPWR VPWR _344_ sky130_fd_sc_hd__mux2_1
X_641_ _259_ _270_ _289_ VGND VGND VPWR VPWR _290_ sky130_fd_sc_hd__nand3_1
Xoutput25 net25 VGND VGND VPWR VPWR out[15] sky130_fd_sc_hd__buf_1
X_572_ _221_ _222_ VGND VGND VPWR VPWR _223_ sky130_fd_sc_hd__xor2_1
XTAP_TAPCELL_ROW_32_167 VGND VPWR sky130_fd_sc_hd__tapvpwrvgnd_1
XFILLER_0_27_55 VGND VGND VPWR VPWR sky130_fd_sc_hd__fill_1
XTAP_TAPCELL_ROW_17_120 VGND VPWR sky130_fd_sc_hd__tapvpwrvgnd_1
XFILLER_0_4_155 VPWR VGND VPWR VGND sky130_ef_sc_hd__decap_12
X_486_ _139_ _134_ _079_ VGND VGND VPWR VPWR _140_ sky130_fd_sc_hd__a21o_1
X_555_ _204_ _206_ VGND VGND VPWR VPWR _014_ sky130_fd_sc_hd__xor2_1
XTAP_TAPCELL_ROW_14_112 VGND VPWR sky130_fd_sc_hd__tapvpwrvgnd_1
XFILLER_0_13_24 VGND VGND VPWR VPWR sky130_fd_sc_hd__fill_1
XFILLER_0_1_169 VPWR VGND VPWR VGND sky130_ef_sc_hd__decap_12
X_624_ _064_ _118_ _110_ _216_ VGND VGND VPWR VPWR _273_ sky130_fd_sc_hd__and4_1
X_538_ _188_ _189_ VGND VGND VPWR VPWR _190_ sky130_fd_sc_hd__xnor2_1
XTAP_TAPCELL_ROW_11_104 VGND VPWR sky130_fd_sc_hd__tapvpwrvgnd_1
X_607_ _255_ _256_ VGND VGND VPWR VPWR _257_ sky130_fd_sc_hd__xor2_1
X_469_ _120_ _121_ _122_ VGND VGND VPWR VPWR _123_ sky130_fd_sc_hd__nand3_1
XPHY_EDGE_ROW_24_Left_57 VGND VGND VPWR VPWR sky130_fd_sc_hd__decap_3
XFILLER_0_19_78 VPWR VGND VPWR VGND sky130_ef_sc_hd__decap_12
XFILLER_0_19_67 VGND VGND VPWR VPWR sky130_fd_sc_hd__decap_3
XFILLER_0_10_58 VPWR VGND VPWR VGND sky130_ef_sc_hd__decap_12
XFILLER_0_21_57 VPWR VGND VPWR VGND sky130_ef_sc_hd__decap_12
XFILLER_0_30_159 VPWR VGND VPWR VGND sky130_ef_sc_hd__decap_12
XFILLER_0_15_167 VGND VGND VPWR VPWR sky130_fd_sc_hd__fill_1
XFILLER_0_15_101 VGND VGND VPWR VPWR sky130_fd_sc_hd__decap_8
XFILLER_0_1_78 VGND VGND VPWR VPWR sky130_fd_sc_hd__decap_8
XFILLER_0_16_35 VGND VGND VPWR VPWR sky130_fd_sc_hd__decap_4
XPHY_EDGE_ROW_27_Left_60 VGND VGND VPWR VPWR sky130_fd_sc_hd__decap_3
XFILLER_0_12_115 VPWR VGND VPWR VGND sky130_ef_sc_hd__decap_12
XPHY_EDGE_ROW_11_Left_44 VGND VGND VPWR VPWR sky130_fd_sc_hd__decap_3
Xoutput26 net26 VGND VGND VPWR VPWR out[1] sky130_fd_sc_hd__buf_1
XFILLER_0_11_181 VGND VGND VPWR VPWR sky130_fd_sc_hd__decap_8
XPHY_EDGE_ROW_1_Right_1 VGND VGND VPWR VPWR sky130_fd_sc_hd__decap_3
X_571_ _069_ _110_ VGND VGND VPWR VPWR _222_ sky130_fd_sc_hd__nand2_1
X_640_ _271_ _288_ VGND VGND VPWR VPWR _289_ sky130_fd_sc_hd__xnor2_1
XTAP_TAPCELL_ROW_32_168 VGND VPWR sky130_fd_sc_hd__tapvpwrvgnd_1
X_769_ net17 _001_ _023_ VGND VGND VPWR VPWR net26 sky130_fd_sc_hd__dfrtp_1
XTAP_TAPCELL_ROW_17_121 VGND VPWR sky130_fd_sc_hd__tapvpwrvgnd_1
XFILLER_0_4_145 VGND VGND VPWR VPWR sky130_fd_sc_hd__decap_6
XFILLER_0_4_167 VGND VGND VPWR VPWR sky130_fd_sc_hd__decap_8
XFILLER_0_30_3 VPWR VGND VPWR VGND sky130_ef_sc_hd__decap_12
XFILLER_0_4_189 VGND VGND VPWR VPWR sky130_fd_sc_hd__decap_3
XFILLER_0_7_55 VGND VGND VPWR VPWR sky130_fd_sc_hd__fill_1
XFILLER_0_7_88 VPWR VGND VPWR VGND sky130_ef_sc_hd__decap_12
X_485_ _104_ VGND VGND VPWR VPWR _139_ sky130_fd_sc_hd__inv_2
X_554_ _205_ _177_ _174_ VGND VGND VPWR VPWR _206_ sky130_fd_sc_hd__a21o_1
XTAP_TAPCELL_ROW_14_113 VGND VPWR sky130_fd_sc_hd__tapvpwrvgnd_1
XFILLER_0_1_126 VGND VGND VPWR VPWR sky130_fd_sc_hd__decap_4
X_623_ _118_ _110_ _216_ _064_ VGND VGND VPWR VPWR _272_ sky130_fd_sc_hd__a22o_1
XFILLER_0_0_181 VGND VGND VPWR VPWR sky130_fd_sc_hd__decap_8
X_399_ _050_ _054_ VGND VGND VPWR VPWR _055_ sky130_fd_sc_hd__xnor2_1
X_468_ _086_ _089_ _088_ VGND VGND VPWR VPWR _122_ sky130_fd_sc_hd__o21bai_1
X_537_ _052_ temp_b\[5\] VGND VGND VPWR VPWR _189_ sky130_fd_sc_hd__nand2_1
XFILLER_0_4_45 VGND VGND VPWR VPWR sky130_fd_sc_hd__fill_1
X_606_ _191_ _223_ _217_ VGND VGND VPWR VPWR _256_ sky130_fd_sc_hd__o21bai_1
XFILLER_0_21_69 VGND VGND VPWR VPWR sky130_fd_sc_hd__fill_1
XFILLER_0_11_91 VPWR VGND VPWR VGND sky130_ef_sc_hd__decap_12
XFILLER_0_1_57 VGND VGND VPWR VPWR sky130_fd_sc_hd__decap_4
XFILLER_0_21_138 VGND VGND VPWR VPWR sky130_fd_sc_hd__decap_3
XFILLER_0_21_127 VGND VGND VPWR VPWR sky130_fd_sc_hd__fill_1
XFILLER_0_32_57 VGND VGND VPWR VPWR sky130_fd_sc_hd__decap_8
XFILLER_0_20_171 VPWR VGND VPWR VGND sky130_ef_sc_hd__decap_12
XFILLER_0_12_127 VGND VGND VPWR VPWR sky130_fd_sc_hd__fill_2
Xoutput27 net27 VGND VGND VPWR VPWR out[2] sky130_fd_sc_hd__buf_1
X_570_ _219_ _220_ VGND VGND VPWR VPWR _221_ sky130_fd_sc_hd__or2b_1
X_768_ net17 _000_ _022_ VGND VGND VPWR VPWR net19 sky130_fd_sc_hd__dfrtp_1
XTAP_TAPCELL_ROW_17_122 VGND VPWR sky130_fd_sc_hd__tapvpwrvgnd_1
X_699_ _339_ VGND VGND VPWR VPWR _018_ sky130_fd_sc_hd__inv_2
XTAP_TAPCELL_ROW_32_169 VGND VPWR sky130_fd_sc_hd__tapvpwrvgnd_1
XPHY_EDGE_ROW_24_Right_24 VGND VGND VPWR VPWR sky130_fd_sc_hd__decap_3
XFILLER_0_23_3 VGND VGND VPWR VPWR sky130_fd_sc_hd__fill_2
XPHY_EDGE_ROW_15_Right_15 VGND VGND VPWR VPWR sky130_fd_sc_hd__decap_3
X_484_ _136_ _137_ VGND VGND VPWR VPWR _138_ sky130_fd_sc_hd__or2_1
X_553_ _171_ _172_ _132_ VGND VGND VPWR VPWR _205_ sky130_fd_sc_hd__a21o_1
XFILLER_0_13_15 VGND VGND VPWR VPWR sky130_fd_sc_hd__decap_4
X_622_ _246_ _249_ _247_ VGND VGND VPWR VPWR _271_ sky130_fd_sc_hd__o21bai_2
X_398_ _051_ _053_ VGND VGND VPWR VPWR _054_ sky130_fd_sc_hd__nor2_1
XFILLER_0_24_47 VGND VGND VPWR VPWR sky130_fd_sc_hd__decap_3
XFILLER_0_24_14 VGND VGND VPWR VPWR sky130_fd_sc_hd__fill_2
X_467_ _117_ _119_ _116_ VGND VGND VPWR VPWR _121_ sky130_fd_sc_hd__o21ai_1
X_536_ _186_ _187_ VGND VGND VPWR VPWR _188_ sky130_fd_sc_hd__and2b_1
X_605_ _253_ _254_ VGND VGND VPWR VPWR _255_ sky130_fd_sc_hd__xor2_1
XFILLER_0_10_27 VGND VGND VPWR VPWR sky130_fd_sc_hd__fill_1
XFILLER_0_27_144 VPWR VGND VPWR VGND sky130_ef_sc_hd__decap_12
X_519_ _169_ _170_ _107_ VGND VGND VPWR VPWR _172_ sky130_fd_sc_hd__a21o_1
XFILLER_0_18_122 VPWR VGND VPWR VGND sky130_ef_sc_hd__decap_12
XFILLER_0_18_177 VGND VGND VPWR VPWR sky130_fd_sc_hd__fill_1
XFILLER_0_30_106 VGND VGND VPWR VPWR sky130_fd_sc_hd__fill_1
XFILLER_0_15_169 VGND VGND VPWR VPWR sky130_fd_sc_hd__decap_8
XFILLER_0_32_69 VGND VGND VPWR VPWR sky130_fd_sc_hd__decap_8
XFILLER_0_20_183 VGND VGND VPWR VPWR sky130_fd_sc_hd__decap_6
XFILLER_0_16_26 VGND VGND VPWR VPWR sky130_fd_sc_hd__fill_2
Xoutput28 net28 VGND VGND VPWR VPWR out[3] sky130_fd_sc_hd__buf_1
XFILLER_0_7_100 VPWR VGND VPWR VGND sky130_ef_sc_hd__decap_12
XFILLER_0_27_47 VGND VGND VPWR VPWR sky130_fd_sc_hd__decap_8
X_767_ net17 _047_ VGND VGND VPWR VPWR temp_a\[7\] sky130_fd_sc_hd__dfxtp_1
XFILLER_0_7_46 VGND VGND VPWR VPWR sky130_fd_sc_hd__decap_3
XFILLER_0_7_57 VPWR VGND VPWR VGND sky130_ef_sc_hd__decap_12
X_698_ _339_ VGND VGND VPWR VPWR _017_ sky130_fd_sc_hd__inv_2
X_483_ _132_ _133_ _135_ VGND VGND VPWR VPWR _137_ sky130_fd_sc_hd__o21a_1
X_552_ _202_ _203_ VGND VGND VPWR VPWR _204_ sky130_fd_sc_hd__xnor2_1
X_621_ _241_ _261_ VGND VGND VPWR VPWR _270_ sky130_fd_sc_hd__nand2_1
XFILLER_0_7_6 VGND VGND VPWR VPWR sky130_fd_sc_hd__decap_4
XTAP_TAPCELL_ROW_20_129 VGND VPWR sky130_fd_sc_hd__tapvpwrvgnd_1
XFILLER_0_0_161 VGND VGND VPWR VPWR sky130_fd_sc_hd__decap_3
X_397_ _361_ _366_ _052_ _357_ VGND VGND VPWR VPWR _053_ sky130_fd_sc_hd__a22oi_2
XFILLER_0_24_37 VGND VGND VPWR VPWR sky130_fd_sc_hd__decap_3
X_466_ _116_ _117_ _119_ VGND VGND VPWR VPWR _120_ sky130_fd_sc_hd__or3_1
X_535_ temp_a\[4\] temp_b\[4\] temp_a\[5\] temp_b\[3\] VGND VGND VPWR VPWR _187_ sky130_fd_sc_hd__a22o_1
XFILLER_0_5_3 VGND VGND VPWR VPWR sky130_fd_sc_hd__decap_6
X_604_ _087_ _110_ VGND VGND VPWR VPWR _254_ sky130_fd_sc_hd__nand2_1
XFILLER_0_14_81 VGND VGND VPWR VPWR sky130_fd_sc_hd__decap_3
XFILLER_0_27_156 VPWR VGND VPWR VGND sky130_ef_sc_hd__decap_12
X_449_ _100_ _101_ _084_ VGND VGND VPWR VPWR _103_ sky130_fd_sc_hd__a21oi_1
X_518_ _107_ _169_ _170_ VGND VGND VPWR VPWR _171_ sky130_fd_sc_hd__nand3_1
XTAP_TAPCELL_ROW_9_96 VGND VPWR sky130_fd_sc_hd__tapvpwrvgnd_1
XFILLER_0_25_80 VGND VGND VPWR VPWR sky130_fd_sc_hd__decap_4
XFILLER_0_18_189 VGND VGND VPWR VPWR sky130_fd_sc_hd__decap_3
XFILLER_0_18_134 VGND VGND VPWR VPWR sky130_fd_sc_hd__decap_6
XFILLER_0_18_112 VGND VGND VPWR VPWR sky130_fd_sc_hd__decap_4
XFILLER_0_32_181 VGND VGND VPWR VPWR sky130_fd_sc_hd__decap_8
XFILLER_0_21_27 VPWR VGND VPWR VGND sky130_ef_sc_hd__decap_12
XFILLER_0_1_15 VPWR VGND VPWR VGND sky130_ef_sc_hd__decap_12
XFILLER_0_23_181 VGND VGND VPWR VPWR sky130_fd_sc_hd__decap_8
XFILLER_0_32_48 VGND VGND VPWR VPWR sky130_fd_sc_hd__decap_8
XFILLER_0_32_15 VPWR VGND VPWR VGND sky130_ef_sc_hd__decap_12
Xoutput29 net29 VGND VGND VPWR VPWR out[4] sky130_fd_sc_hd__clkbuf_1
XFILLER_0_22_81 VGND VGND VPWR VPWR sky130_fd_sc_hd__decap_3
XFILLER_0_22_70 VGND VGND VPWR VPWR sky130_fd_sc_hd__fill_1
XFILLER_0_7_156 VPWR VGND VPWR VGND sky130_ef_sc_hd__decap_12
XPHY_EDGE_ROW_15_Left_48 VGND VGND VPWR VPWR sky130_fd_sc_hd__decap_3
X_697_ _339_ VGND VGND VPWR VPWR _016_ sky130_fd_sc_hd__inv_2
XFILLER_0_7_36 VGND VGND VPWR VPWR sky130_fd_sc_hd__decap_3
XFILLER_0_7_69 VPWR VGND VPWR VGND sky130_ef_sc_hd__decap_12
X_766_ net17 _046_ VGND VGND VPWR VPWR temp_a\[6\] sky130_fd_sc_hd__dfxtp_1
XTAP_TAPCELL_ROW_23_138 VGND VPWR sky130_fd_sc_hd__tapvpwrvgnd_1
X_551_ _107_ _170_ _169_ VGND VGND VPWR VPWR _203_ sky130_fd_sc_hd__a21boi_1
X_620_ _266_ _269_ VGND VGND VPWR VPWR _006_ sky130_fd_sc_hd__xnor2_1
XFILLER_0_3_181 VGND VGND VPWR VPWR sky130_fd_sc_hd__decap_8
XPHY_EDGE_ROW_5_Right_5 VGND VGND VPWR VPWR sky130_fd_sc_hd__decap_3
X_482_ _132_ _133_ _135_ VGND VGND VPWR VPWR _136_ sky130_fd_sc_hd__nor3_1
XFILLER_0_13_39 VGND VGND VPWR VPWR sky130_fd_sc_hd__decap_3
X_749_ net17 _009_ _019_ VGND VGND VPWR VPWR net23 sky130_fd_sc_hd__dfrtp_1
X_396_ temp_a\[3\] VGND VGND VPWR VPWR _052_ sky130_fd_sc_hd__clkbuf_4
XFILLER_0_24_27 VGND VGND VPWR VPWR sky130_fd_sc_hd__fill_1
X_534_ temp_b\[3\] temp_a\[4\] temp_b\[4\] temp_a\[5\] VGND VGND VPWR VPWR _186_ sky130_fd_sc_hd__and4_1